1659422942.206237s 1 https://api.dandiarchive.org/api/zarr/41707b33-924f-4be0-b8d2-773d9e07a60c.zarr/0/0/0/10/7/11
1659422942.152361s 1 https://dandiarchive.s3.amazonaws.com/zarr/41707b33-924f-4be0-b8d2-773d9e07a60c/0/0/0/10/7/11?versionId=.bjsMrL3.MT3DWI8yDDFL9aa62tFLIUa
